23
Lattice="20. 0. 0. 0. 20. 0. 0. 0. 20." Properties=species:S:1:pos:R:3
 H     -8.433   0.454   1.820
 H     -8.182   0.363   0.459
 N     -8.772  -0.103   1.104
 H     -9.742  -0.274   0.988
 C     -7.933  -1.279   1.288
 H     -7.487  -1.221   2.272
 C     -8.814  -2.541   1.197
 H     -9.627  -2.499   1.954
 H     -9.264  -2.640   0.186
 H     -8.204  -3.450   1.402
 C     -6.781  -1.386   0.292
 O     -5.657  -1.745   0.637
 N     -7.038  -1.021  -0.978
 H     -7.956  -0.734  -1.228
 C     -6.051  -0.998  -2.037
 H     -5.620  -1.987  -2.114
 C     -6.772  -0.633  -3.348
 H     -7.589  -1.360  -3.543
 H     -7.204   0.389  -3.289
 H     -6.066  -0.672  -4.206
 C     -4.888  -0.029  -1.807
 O     -3.741  -0.312  -2.145
 O     -5.161   1.138  -1.194
